/*--------------------------------*- C++ -*----------------------------------*\
| =========                 |                                                 |
| \\      /  F ield         | OpenFOAM: The Open Source CFD Toolbox           |
|  \\    /   O peration     | Version:  4.1                                   |
|   \\  /    A nd           | Web:      www.OpenFOAM.org                      |
|    \\/     M anipulation  |                                                 |
\*---------------------------------------------------------------------------*/
FoamFile
{
    version     2.0;
    format      ascii;
    class       extendedFeatureEdgeMesh;
    location    "constant/extendedFeatureEdgeMesh";
    object      cylinder_twist2.extendedFeatureEdgeMesh;
}
// * * * * * * * * * * * * * * * * * * * * * * * * * * * * * * * * * * * * * //

// points

166
(
(0.080891 -0.493413 0)
(0.0270695 -0.499267 0)
(-0.0270695 -0.499267 0)
(-0.080891 -0.493413 0)
(0.133764 -0.481775 0)
(-0.133764 -0.481775 0)
(0.185069 -0.464488 0)
(-0.185069 -0.464488 0)
(0.234204 -0.441756 0)
(-0.234204 -0.441756 0)
(0.280594 -0.413845 0)
(-0.280594 -0.413845 0)
(0.323693 -0.381081 0)
(-0.323693 -0.381081 0)
(0.362998 -0.34385 0)
(-0.362998 -0.34385 0)
(0.398047 -0.302587 0)
(-0.398047 -0.302587 0)
(0.428429 -0.257777 0)
(-0.428429 -0.257777 0)
(0.453788 -0.209945 0)
(-0.453788 -0.209945 0)
(0.473827 -0.159651 0)
(-0.473827 -0.159651 0)
(0.48831 -0.107485 0)
(-0.48831 -0.107485 0)
(0.497069 -0.0540595 0)
(-0.497069 -0.0540595 0)
(0.5 0 0)
(-0.5 6.12323e-17 0)
(0.497069 0.0540595 0)
(-0.497069 0.0540595 0)
(0.48831 0.107485 0)
(-0.48831 0.107485 0)
(0.473827 0.159651 0)
(-0.473827 0.159651 0)
(0.453788 0.209945 0)
(-0.453788 0.209945 0)
(0.428429 0.257777 0)
(-0.428429 0.257777 0)
(0.398047 0.302587 0)
(-0.398047 0.302587 0)
(0.362998 0.34385 0)
(-0.362998 0.34385 0)
(0.323693 0.381081 0)
(-0.323693 0.381081 0)
(0.280594 0.413845 0)
(-0.280594 0.413845 0)
(0.234204 0.441756 0)
(-0.234204 0.441756 0)
(0.185069 0.464488 0)
(-0.185069 0.464488 0)
(0.133764 0.481775 0)
(-0.133764 0.481775 0)
(0.080891 0.493413 0)
(-0.080891 0.493413 0)
(0.0270695 0.499267 0)
(-0.0270695 0.499267 0)
(0.0270695 0.499267 5)
(-0.0270695 0.499267 5)
(0.080891 0.493413 5)
(-0.080891 0.493413 5)
(0.133764 0.481775 5)
(-0.133764 0.481775 5)
(0.185069 0.464488 5)
(-0.185069 0.464488 5)
(0.234204 0.441756 5)
(-0.234204 0.441756 5)
(0.280594 0.413845 5)
(-0.280594 0.413845 5)
(0.323693 0.381081 5)
(-0.323693 0.381081 5)
(0.362998 0.34385 5)
(-0.362998 0.34385 5)
(0.398047 0.302587 5)
(-0.398047 0.302587 5)
(0.428429 0.257777 5)
(-0.428429 0.257777 5)
(0.453788 0.209945 5)
(-0.453788 0.209945 5)
(0.473827 0.159651 5)
(-0.473827 0.159651 5)
(0.48831 0.107485 5)
(-0.48831 0.107485 5)
(0.497069 0.0540595 5)
(-0.497069 0.0540595 5)
(0.5 0 5)
(-0.5 6.12323e-17 5)
(0.497069 -0.0540595 5)
(-0.497069 -0.0540595 5)
(0.48831 -0.107485 5)
(-0.48831 -0.107485 5)
(0.473827 -0.159651 5)
(-0.473827 -0.159651 5)
(0.453788 -0.209945 5)
(-0.453788 -0.209945 5)
(0.428429 -0.257777 5)
(-0.428429 -0.257777 5)
(0.398047 -0.302587 5)
(-0.398047 -0.302587 5)
(0.362998 -0.34385 5)
(-0.362998 -0.34385 5)
(0.323693 -0.381081 5)
(-0.323693 -0.381081 5)
(0.280594 -0.413845 5)
(-0.280594 -0.413845 5)
(0.234204 -0.441756 5)
(-0.234204 -0.441756 5)
(0.185069 -0.464488 5)
(-0.185069 -0.464488 5)
(0.133764 -0.481775 5)
(-0.133764 -0.481775 5)
(0.080891 -0.493413 5)
(-0.080891 -0.493413 5)
(0.0270695 -0.499267 5)
(-0.0270695 -0.499267 5)
(0 0.599123 0.0593223)
(0 0.597998 0.0640054)
(0 0.6 0.05)
(0 0.599123 0.0406777)
(0 0.597998 0.0359946)
(0 0.500877 0.0406777)
(0 0.502002 0.0359946)
(0 0.596683 0.0320911)
(0 0.505053 0.0280967)
(0 0.594947 0.0280967)
(0 0.592728 0.024032)
(0 0.596683 0.0679089)
(0 0.510001 0.0199987)
(0 0.589999 0.0199987)
(0 0.586725 0.0160698)
(0 0.51607 0.0132744)
(0 0.58393 0.0132744)
(0 0.580767 0.0105871)
(0 0.528841 0.00469777)
(0 0.571159 0.00469777)
(0 0.565995 0.00262758)
(0 0.534005 0.00262758)
(0 0.562306 0.00153806)
(0 0.537694 0.00153806)
(0 0.55 0)
(0 0.597998 1.03599)
(0 0.596683 1.03209)
(0 0.599123 1.04068)
(0 0.6 1.05)
(0 0.599123 1.05932)
(0 0.597998 1.06401)
(0 0.500877 1.05932)
(0 0.502002 1.06401)
(0 0.596683 1.06791)
(0 0.594947 1.0719)
(0 0.505053 1.0719)
(0 0.592728 1.07597)
(0 0.589999 1.08)
(0 0.510001 1.08)
(0 0.586725 1.08393)
(0 0.58393 1.08673)
(0 0.51607 1.08673)
(0 0.580767 1.08941)
(0 0.571159 1.0953)
(0 0.528841 1.0953)
(0 0.565995 1.09737)
(0 0.534005 1.09737)
(0 0.562306 1.09846)
(0 0.537694 1.09846)
(0 0.55 1.1)
)

// edges

164
(
(0 1)
(1 2)
(2 3)
(4 0)
(3 5)
(6 4)
(5 7)
(8 6)
(7 9)
(10 8)
(9 11)
(12 10)
(11 13)
(14 12)
(13 15)
(16 14)
(15 17)
(18 16)
(17 19)
(20 18)
(19 21)
(22 20)
(21 23)
(24 22)
(23 25)
(26 24)
(25 27)
(28 26)
(27 29)
(30 28)
(29 31)
(32 30)
(31 33)
(34 32)
(33 35)
(36 34)
(35 37)
(38 36)
(37 39)
(40 38)
(39 41)
(42 40)
(41 43)
(44 42)
(43 45)
(46 44)
(45 47)
(48 46)
(47 49)
(50 48)
(49 51)
(52 50)
(51 53)
(54 52)
(53 55)
(56 54)
(55 57)
(57 56)
(58 59)
(60 58)
(59 61)
(62 60)
(61 63)
(64 62)
(63 65)
(66 64)
(65 67)
(68 66)
(67 69)
(70 68)
(69 71)
(72 70)
(71 73)
(74 72)
(73 75)
(76 74)
(75 77)
(78 76)
(77 79)
(80 78)
(79 81)
(82 80)
(81 83)
(84 82)
(83 85)
(86 84)
(85 87)
(88 86)
(87 89)
(90 88)
(89 91)
(92 90)
(91 93)
(94 92)
(93 95)
(96 94)
(95 97)
(98 96)
(97 99)
(100 98)
(99 101)
(102 100)
(101 103)
(104 102)
(103 105)
(106 104)
(105 107)
(108 106)
(107 109)
(110 108)
(109 111)
(112 110)
(111 113)
(114 112)
(115 114)
(113 115)
(116 117)
(118 116)
(119 118)
(120 119)
(121 122)
(123 120)
(122 124)
(125 123)
(126 125)
(117 127)
(124 128)
(129 126)
(130 129)
(128 131)
(132 130)
(133 132)
(131 134)
(135 133)
(136 135)
(134 137)
(138 136)
(137 139)
(140 138)
(139 140)
(141 142)
(143 141)
(144 143)
(145 144)
(146 145)
(147 148)
(149 146)
(150 149)
(148 151)
(152 150)
(153 152)
(151 154)
(155 153)
(156 155)
(154 157)
(158 156)
(159 158)
(157 160)
(161 159)
(160 162)
(163 161)
(162 164)
(165 163)
(164 165)
)

// concaveStart mixedStart nonFeatureStart
0 0 0
// internalStart flatStart openStart multipleStart
164 164 164 164
// normals

322
(
(0 0 -1)
(0.108129 -0.994137 0)
(0 -1 0)
(-0 0 -1)
(-0.108129 -0.994137 0)
(0 0 -1)
(0.214967 -0.976621 0)
(-0 0 -1)
(-0.214967 -0.976621 0)
(0 0 -1)
(0.319307 -0.947651 0)
(-0 0 -1)
(-0.319307 -0.947651 0)
(0 0 -1)
(0.419885 -0.907577 0)
(-0 0 -1)
(-0.419885 -0.907577 0)
(0 0 -1)
(0.515541 -0.856865 0)
(-0 0 -1)
(-0.515541 -0.856865 0)
(0 0 -1)
(0.605186 -0.796084 0)
(-0 0 -1)
(-0.605186 -0.796084 0)
(0 0 -1)
(0.687693 -0.726001 0)
(-0 0 -1)
(-0.687693 -0.726001 0)
(0 0 -1)
(0.762163 -0.647385 0)
(-0 0 -1)
(-0.762163 -0.647385 0)
(0 0 -1)
(0.827688 -0.561188 0)
(-0 0 -1)
(-0.827688 -0.561188 0)
(0 0 -1)
(0.883511 -0.46841 0)
(-0 0 -1)
(-0.883511 -0.46841 0)
(0 0 -1)
(0.928977 -0.370139 0)
(-0 0 -1)
(-0.928977 -0.370139 0)
(0 0 -1)
(0.963554 -0.267514 0)
(-0 0 -1)
(-0.963554 -0.267514 0)
(0 0 -1)
(0.986826 -0.161788 0)
(-0 0 -1)
(-0.986826 -0.161788 0)
(0 0 -1)
(0.998533 -0.0541385 0)
(-0 0 -1)
(-0.998533 -0.0541385 0)
(0 0 -1)
(0.998533 0.0541385 0)
(-0 0 -1)
(-0.998533 0.0541385 0)
(0 0 -1)
(0.986826 0.161788 0)
(-0 0 -1)
(-0.986826 0.161788 0)
(0 0 -1)
(0.963554 0.267514 0)
(-0 0 -1)
(-0.963554 0.267514 0)
(0 0 -1)
(0.928977 0.370139 0)
(-0 0 -1)
(-0.928977 0.370139 0)
(0 0 -1)
(0.883511 0.46841 0)
(-0 0 -1)
(-0.883511 0.46841 0)
(0 0 -1)
(0.827688 0.561188 0)
(-0 0 -1)
(-0.827688 0.561188 0)
(0 0 -1)
(0.762163 0.647385 0)
(-0 0 -1)
(-0.762163 0.647385 0)
(0 0 -1)
(0.687693 0.726001 0)
(-0 0 -1)
(-0.687693 0.726001 0)
(0 0 -1)
(0.605186 0.796084 0)
(-0 0 -1)
(-0.605186 0.796084 0)
(0 0 -1)
(0.515541 0.856865 0)
(-0 0 -1)
(-0.515541 0.856865 0)
(0 0 -1)
(0.419885 0.907577 0)
(-0 0 -1)
(-0.419885 0.907577 0)
(0 0 -1)
(0.319307 0.947651 0)
(-0 0 -1)
(-0.319307 0.947651 0)
(0 0 -1)
(0.214967 0.976621 0)
(-0 0 -1)
(-0.214967 0.976621 0)
(0 0 -1)
(0.108129 0.994137 0)
(-0 0 -1)
(-0.108129 0.994137 0)
(0 1 0)
(0 0 1)
(0 1 0)
(0.108129 0.994137 -0)
(0 0 1)
(-0.108129 0.994137 0)
(0 0 1)
(0.214967 0.976621 -0)
(0 0 1)
(-0.214967 0.976621 0)
(0 0 1)
(0.319307 0.947651 -0)
(0 0 1)
(-0.319307 0.947651 0)
(0 0 1)
(0.419885 0.907577 -0)
(0 0 1)
(-0.419885 0.907577 0)
(0 0 1)
(0.515541 0.856865 -0)
(0 0 1)
(-0.515541 0.856865 0)
(0 0 1)
(0.605186 0.796084 -0)
(0 0 1)
(-0.605186 0.796084 0)
(0 0 1)
(0.687693 0.726001 -0)
(0 0 1)
(-0.687693 0.726001 0)
(0 0 1)
(0.762163 0.647385 -0)
(0 0 1)
(-0.762163 0.647385 0)
(0 0 1)
(0.827688 0.561188 -0)
(0 0 1)
(-0.827688 0.561188 0)
(0 0 1)
(0.883511 0.46841 -0)
(0 0 1)
(-0.883511 0.46841 0)
(0 0 1)
(0.928977 0.370139 -0)
(0 0 1)
(-0.928977 0.370139 0)
(0 0 1)
(0.963554 0.267514 -0)
(0 0 1)
(-0.963554 0.267514 0)
(0 0 1)
(0.986826 0.161788 -0)
(0 0 1)
(-0.986826 0.161788 0)
(0 0 1)
(0.998533 0.0541385 -0)
(0 0 1)
(-0.998533 0.0541385 0)
(0 0 1)
(0.998533 -0.0541385 0)
(0 0 1)
(-0.998533 -0.0541385 0)
(0 0 1)
(0.986826 -0.161788 0)
(0 0 1)
(-0.986826 -0.161788 0)
(0 0 1)
(0.963554 -0.267514 0)
(0 0 1)
(-0.963554 -0.267514 0)
(0 0 1)
(0.928977 -0.370139 0)
(0 0 1)
(-0.928977 -0.370139 0)
(0 0 1)
(0.883511 -0.46841 0)
(0 0 1)
(-0.883511 -0.46841 0)
(0 0 1)
(0.827688 -0.561188 0)
(0 0 1)
(-0.827688 -0.561188 0)
(0 0 1)
(0.762163 -0.647385 0)
(0 0 1)
(-0.762163 -0.647385 0)
(0 0 1)
(0.687693 -0.726001 0)
(0 0 1)
(-0.687693 -0.726001 0)
(0 0 1)
(0.605186 -0.796084 0)
(0 0 1)
(-0.605186 -0.796084 0)
(0 0 1)
(0.515541 -0.856865 0)
(0 0 1)
(-0.515541 -0.856865 0)
(0 0 1)
(0.419885 -0.907577 0)
(0 0 1)
(-0.419885 -0.907577 0)
(0 0 1)
(0.319307 -0.947651 0)
(0 0 1)
(-0.319307 -0.947651 0)
(0 0 1)
(0.214967 -0.976621 0)
(0 0 1)
(-0.214967 -0.976621 0)
(0 0 1)
(0.108129 -0.994137 0)
(0 0 1)
(0 -1 0)
(-0.108129 -0.994137 0)
(1 0 0)
(-0.0197713 0.972148 0.23353)
(1 0 0)
(-0.0283568 0.995203 0.0936267)
(1 0 0)
(-0.0407724 0.994776 -0.0935865)
(1 0 0)
(-0.0563711 0.970792 -0.233205)
(1 0 0)
(-0.00669488 -0.972317 -0.233571)
(1 0 0)
(-0.0631207 0.945781 -0.318612)
(1 0 0)
(-0.0208116 -0.932615 -0.360272)
(1 0 0)
(-0.0690936 0.914933 -0.397648)
(1 0 0)
(-0.0749335 0.87526 -0.477813)
(1 0 0)
(-0.00656521 0.947651 0.319241)
(1 0 0)
(-0.022784 -0.853096 -0.521256)
(1 0 0)
(-0.0805619 0.825535 -0.558571)
(1 0 0)
(-0.0857956 0.765394 -0.637817)
(1 0 0)
(-0.0452204 -0.741593 -0.669324)
(1 0 0)
(-0.0917139 0.704179 -0.704074)
(1 0 0)
(-0.0978708 0.64436 -0.758433)
(1 0 0)
(-0.0542494 -0.556694 -0.828944)
(1 0 0)
(-0.0922039 0.520373 -0.848947)
(1 0 0)
(-0.0980238 0.370308 -0.923723)
(1 0 0)
(-0.0766636 -0.371009 -0.925459)
(1 0 0)
(-0.100312 0.28182 -0.954209)
(1 0 0)
(-0.083818 -0.282252 -0.955672)
(1 0 0)
(-0.0996926 0.123402 -0.987336)
(-0.0906861 -0.123508 -0.988191)
(-1 -0 0)
(0.00654158 0.947565 -0.319495)
(-1 0 0)
(0.0197851 0.972227 -0.233203)
(-1 0 0)
(0.0283456 0.995202 -0.0936506)
(-1 0 0)
(0.040774 0.994774 0.0936091)
(-1 0 0)
(0.0563924 0.97087 0.232877)
(-1 -0 0)
(0.00668193 -0.972395 0.233243)
(-1 0 0)
(0.0631394 0.945692 0.318873)
(-1 -0 0)
(0.0691304 0.914772 0.398011)
(-1 0 0)
(0.0208827 -0.932492 0.360586)
(-1 0 0)
(0.0749083 0.875525 0.477331)
(-1 -0 0)
(0.0806213 0.825318 0.558883)
(-1 -0 0)
(0.0228143 -0.853153 0.521161)
(-1 0 0)
(0.0857681 0.765482 0.637716)
(-1 -0 0)
(0.0917072 0.704757 0.703497)
(-1 0 0)
(0.0451913 -0.741874 0.669014)
(-1 0 0)
(0.0977258 0.643343 0.759315)
(-1 -0 0)
(0.0921938 0.520417 0.848921)
(-1 -0 0)
(0.0542984 -0.556394 0.829143)
(-1 0 0)
(0.0979298 0.370293 0.923739)
(-1 -0 0)
(0.076564 -0.370993 0.925474)
(-1 0 0)
(0.100171 0.281921 0.954194)
(-1 -0 0)
(0.0836629 -0.282353 0.955655)
(-1 0 0)
(0.0998017 0.123559 0.987306)
(0.0907839 -0.123666 0.988162)
)

// normal volume types

322
(
0
0
0
0
0
0
0
0
0
0
0
0
0
0
0
0
0
0
0
0
0
0
0
0
0
0
0
0
0
0
0
0
0
0
0
0
0
0
0
0
0
0
0
0
0
0
0
0
0
0
0
0
0
0
0
0
0
0
0
0
0
0
0
0
0
0
0
0
0
0
0
0
0
0
0
0
0
0
0
0
0
0
0
0
0
0
0
0
0
0
0
0
0
0
0
0
0
0
0
0
0
0
0
0
0
0
0
0
0
0
0
0
0
0
0
0
0
0
0
0
0
0
0
0
0
0
0
0
0
0
0
0
0
0
0
0
0
0
0
0
0
0
0
0
0
0
0
0
0
0
0
0
0
0
0
0
0
0
0
0
0
0
0
0
0
0
0
0
0
0
0
0
0
0
0
0
0
0
0
0
0
0
0
0
0
0
0
0
0
0
0
0
0
0
0
0
0
0
0
0
0
0
0
0
0
0
0
0
0
0
0
0
0
0
0
0
0
0
0
0
0
0
0
0
0
0
0
0
0
0
0
0
0
0
0
0
0
0
0
0
0
0
0
0
0
0
0
0
0
0
0
0
0
0
0
0
0
0
0
0
0
0
0
0
0
0
0
0
0
0
0
0
0
0
0
0
0
0
0
0
0
0
0
0
0
0
0
0
0
0
0
0
0
0
0
0
0
0
0
0
0
0
0
0
0
0
0
0
0
0
0
0
0
0
0
0
0
0
0
0
0
0
)

// normalDirections

164
(
2(1 -1)
2(1 -1)
2(1 -1)
2(1 -1)
2(1 -1)
2(1 -1)
2(1 -1)
2(1 -1)
2(1 -1)
2(1 -1)
2(1 -1)
2(1 -1)
2(1 -1)
2(1 -1)
2(1 -1)
2(1 -1)
2(1 -1)
2(1 -1)
2(1 -1)
2(1 -1)
2(1 -1)
2(1 -1)
2(1 -1)
2(1 -1)
2(1 -1)
2(1 -1)
2(1 -1)
2(1 -1)
2(1 -1)
2(1 -1)
2(1 -1)
2(1 -1)
2(1 -1)
2(1 -1)
2(1 -1)
2(1 -1)
2(1 -1)
2(1 -1)
2(1 -1)
2(1 -1)
2(1 -1)
2(1 -1)
2(1 -1)
2(1 -1)
2(1 -1)
2(1 -1)
2(1 -1)
2(1 -1)
2(1 -1)
2(1 -1)
2(1 -1)
2(1 -1)
2(1 -1)
2(1 -1)
2(1 -1)
2(1 -1)
2(1 -1)
2(1 -1)
2(1 -1)
2(1 -1)
2(1 -1)
2(1 -1)
2(1 -1)
2(1 -1)
2(1 -1)
2(1 -1)
2(1 -1)
2(1 -1)
2(1 -1)
2(1 -1)
2(1 -1)
2(1 -1)
2(1 -1)
2(1 -1)
2(1 -1)
2(1 -1)
2(1 -1)
2(1 -1)
2(1 -1)
2(1 -1)
2(1 -1)
2(1 -1)
2(1 -1)
2(1 -1)
2(1 -1)
2(1 -1)
2(1 -1)
2(1 -1)
2(1 -1)
2(1 -1)
2(1 -1)
2(1 -1)
2(1 -1)
2(1 -1)
2(1 -1)
2(1 -1)
2(1 -1)
2(1 -1)
2(1 -1)
2(1 -1)
2(1 -1)
2(1 -1)
2(1 -1)
2(1 -1)
2(1 -1)
2(1 -1)
2(1 -1)
2(1 -1)
2(1 -1)
2(1 -1)
2(1 -1)
2(1 -1)
2(1 -1)
2(1 -1)
2(1 -1)
2(1 -1)
2(1 -1)
2(1 -1)
2(1 -1)
2(1 -1)
2(1 -1)
2(1 -1)
2(1 -1)
2(1 -1)
2(1 -1)
2(1 -1)
2(1 -1)
2(1 -1)
2(1 -1)
2(1 -1)
2(1 -1)
2(1 -1)
2(1 -1)
2(1 -1)
2(1 -1)
2(1 -1)
2(1 -1)
2(1 -1)
2(1 -1)
2(1 -1)
2(1 -1)
2(1 -1)
2(1 -1)
2(1 -1)
2(1 -1)
2(1 -1)
2(1 -1)
2(1 -1)
2(1 -1)
2(1 -1)
2(1 -1)
2(1 -1)
2(1 -1)
2(1 -1)
2(1 -1)
2(1 -1)
2(1 -1)
2(1 -1)
2(1 -1)
2(1 -1)
2(1 -1)
2(1 -1)
2(1 -1)
2(1 -1)
)

// edgeNormals

164
(
2(0 1)
2(0 2)
2(3 4)
2(5 6)
2(7 8)
2(9 10)
2(11 12)
2(13 14)
2(15 16)
2(17 18)
2(19 20)
2(21 22)
2(23 24)
2(25 26)
2(27 28)
2(29 30)
2(31 32)
2(33 34)
2(35 36)
2(37 38)
2(39 40)
2(41 42)
2(43 44)
2(45 46)
2(47 48)
2(49 50)
2(51 52)
2(53 54)
2(55 56)
2(57 58)
2(59 60)
2(61 62)
2(63 64)
2(65 66)
2(67 68)
2(69 70)
2(71 72)
2(73 74)
2(75 76)
2(77 78)
2(79 80)
2(81 82)
2(83 84)
2(85 86)
2(87 88)
2(89 90)
2(91 92)
2(93 94)
2(95 96)
2(97 98)
2(99 100)
2(101 102)
2(103 104)
2(105 106)
2(107 108)
2(109 110)
2(111 112)
2(111 113)
2(114 115)
2(114 116)
2(117 118)
2(119 120)
2(121 122)
2(123 124)
2(125 126)
2(127 128)
2(129 130)
2(131 132)
2(133 134)
2(135 136)
2(137 138)
2(139 140)
2(141 142)
2(143 144)
2(145 146)
2(147 148)
2(149 150)
2(151 152)
2(153 154)
2(155 156)
2(157 158)
2(159 160)
2(161 162)
2(163 164)
2(165 166)
2(167 168)
2(169 170)
2(171 172)
2(173 174)
2(175 176)
2(177 178)
2(179 180)
2(181 182)
2(183 184)
2(185 186)
2(187 188)
2(189 190)
2(191 192)
2(193 194)
2(195 196)
2(197 198)
2(199 200)
2(201 202)
2(203 204)
2(205 206)
2(207 208)
2(209 210)
2(211 212)
2(213 214)
2(215 216)
2(217 218)
2(219 220)
2(221 222)
2(223 224)
2(225 226)
2(225 227)
2(228 229)
2(230 231)
2(232 233)
2(234 235)
2(236 237)
2(238 239)
2(240 241)
2(242 243)
2(244 245)
2(246 247)
2(248 249)
2(250 251)
2(252 253)
2(254 255)
2(256 257)
2(258 259)
2(260 261)
2(262 263)
2(264 265)
2(266 267)
2(268 269)
2(270 271)
2(272 273)
2(272 274)
2(275 276)
2(277 278)
2(279 280)
2(281 282)
2(283 284)
2(285 286)
2(287 288)
2(289 290)
2(291 292)
2(293 294)
2(295 296)
2(297 298)
2(299 300)
2(301 302)
2(303 304)
2(305 306)
2(307 308)
2(309 310)
2(311 312)
2(313 314)
2(315 316)
2(317 318)
2(319 320)
2(319 321)
)

// featurePointNormals
0()
// featurePointEdges
0()
// regionEdges
0()


// ************************************************************************* //
