/*--------------------------------*- C++ -*----------------------------------*\
| =========                 |                                                 |
| \\      /  F ield         | OpenFOAM: The Open Source CFD Toolbox           |
|  \\    /   O peration     | Version:  4.1                                   |
|   \\  /    A nd           | Web:      www.OpenFOAM.org                      |
|    \\/     M anipulation  |                                                 |
\*---------------------------------------------------------------------------*/
FoamFile
{
    version     2.0;
    format      ascii;
    class       featureEdgeMesh;
    location    "constant/triSurface";
    object      cylinder_twist2.eMesh;
}
// * * * * * * * * * * * * * * * * * * * * * * * * * * * * * * * * * * * * * //


// points:

166
(
(0.080891 -0.493413 0)
(0.0270695 -0.499267 0)
(-0.0270695 -0.499267 0)
(-0.080891 -0.493413 0)
(0.133764 -0.481775 0)
(-0.133764 -0.481775 0)
(0.185069 -0.464488 0)
(-0.185069 -0.464488 0)
(0.234204 -0.441756 0)
(-0.234204 -0.441756 0)
(0.280594 -0.413845 0)
(-0.280594 -0.413845 0)
(0.323693 -0.381081 0)
(-0.323693 -0.381081 0)
(0.362998 -0.34385 0)
(-0.362998 -0.34385 0)
(0.398047 -0.302587 0)
(-0.398047 -0.302587 0)
(0.428429 -0.257777 0)
(-0.428429 -0.257777 0)
(0.453788 -0.209945 0)
(-0.453788 -0.209945 0)
(0.473827 -0.159651 0)
(-0.473827 -0.159651 0)
(0.48831 -0.107485 0)
(-0.48831 -0.107485 0)
(0.497069 -0.0540595 0)
(-0.497069 -0.0540595 0)
(0.5 0 0)
(-0.5 6.12323e-17 0)
(0.497069 0.0540595 0)
(-0.497069 0.0540595 0)
(0.48831 0.107485 0)
(-0.48831 0.107485 0)
(0.473827 0.159651 0)
(-0.473827 0.159651 0)
(0.453788 0.209945 0)
(-0.453788 0.209945 0)
(0.428429 0.257777 0)
(-0.428429 0.257777 0)
(0.398047 0.302587 0)
(-0.398047 0.302587 0)
(0.362998 0.34385 0)
(-0.362998 0.34385 0)
(0.323693 0.381081 0)
(-0.323693 0.381081 0)
(0.280594 0.413845 0)
(-0.280594 0.413845 0)
(0.234204 0.441756 0)
(-0.234204 0.441756 0)
(0.185069 0.464488 0)
(-0.185069 0.464488 0)
(0.133764 0.481775 0)
(-0.133764 0.481775 0)
(0.080891 0.493413 0)
(-0.080891 0.493413 0)
(0.0270695 0.499267 0)
(-0.0270695 0.499267 0)
(0.0270695 0.499267 5)
(-0.0270695 0.499267 5)
(0.080891 0.493413 5)
(-0.080891 0.493413 5)
(0.133764 0.481775 5)
(-0.133764 0.481775 5)
(0.185069 0.464488 5)
(-0.185069 0.464488 5)
(0.234204 0.441756 5)
(-0.234204 0.441756 5)
(0.280594 0.413845 5)
(-0.280594 0.413845 5)
(0.323693 0.381081 5)
(-0.323693 0.381081 5)
(0.362998 0.34385 5)
(-0.362998 0.34385 5)
(0.398047 0.302587 5)
(-0.398047 0.302587 5)
(0.428429 0.257777 5)
(-0.428429 0.257777 5)
(0.453788 0.209945 5)
(-0.453788 0.209945 5)
(0.473827 0.159651 5)
(-0.473827 0.159651 5)
(0.48831 0.107485 5)
(-0.48831 0.107485 5)
(0.497069 0.0540595 5)
(-0.497069 0.0540595 5)
(0.5 0 5)
(-0.5 6.12323e-17 5)
(0.497069 -0.0540595 5)
(-0.497069 -0.0540595 5)
(0.48831 -0.107485 5)
(-0.48831 -0.107485 5)
(0.473827 -0.159651 5)
(-0.473827 -0.159651 5)
(0.453788 -0.209945 5)
(-0.453788 -0.209945 5)
(0.428429 -0.257777 5)
(-0.428429 -0.257777 5)
(0.398047 -0.302587 5)
(-0.398047 -0.302587 5)
(0.362998 -0.34385 5)
(-0.362998 -0.34385 5)
(0.323693 -0.381081 5)
(-0.323693 -0.381081 5)
(0.280594 -0.413845 5)
(-0.280594 -0.413845 5)
(0.234204 -0.441756 5)
(-0.234204 -0.441756 5)
(0.185069 -0.464488 5)
(-0.185069 -0.464488 5)
(0.133764 -0.481775 5)
(-0.133764 -0.481775 5)
(0.080891 -0.493413 5)
(-0.080891 -0.493413 5)
(0.0270695 -0.499267 5)
(-0.0270695 -0.499267 5)
(0 0.599123 0.0593223)
(0 0.597998 0.0640054)
(0 0.6 0.05)
(0 0.599123 0.0406777)
(0 0.597998 0.0359946)
(0 0.500877 0.0406777)
(0 0.502002 0.0359946)
(0 0.596683 0.0320911)
(0 0.505053 0.0280967)
(0 0.594947 0.0280967)
(0 0.592728 0.024032)
(0 0.596683 0.0679089)
(0 0.510001 0.0199987)
(0 0.589999 0.0199987)
(0 0.586725 0.0160698)
(0 0.51607 0.0132744)
(0 0.58393 0.0132744)
(0 0.580767 0.0105871)
(0 0.528841 0.00469777)
(0 0.571159 0.00469777)
(0 0.565995 0.00262758)
(0 0.534005 0.00262758)
(0 0.562306 0.00153806)
(0 0.537694 0.00153806)
(0 0.55 0)
(0 0.597998 1.03599)
(0 0.596683 1.03209)
(0 0.599123 1.04068)
(0 0.6 1.05)
(0 0.599123 1.05932)
(0 0.597998 1.06401)
(0 0.500877 1.05932)
(0 0.502002 1.06401)
(0 0.596683 1.06791)
(0 0.594947 1.0719)
(0 0.505053 1.0719)
(0 0.592728 1.07597)
(0 0.589999 1.08)
(0 0.510001 1.08)
(0 0.586725 1.08393)
(0 0.58393 1.08673)
(0 0.51607 1.08673)
(0 0.580767 1.08941)
(0 0.571159 1.0953)
(0 0.528841 1.0953)
(0 0.565995 1.09737)
(0 0.534005 1.09737)
(0 0.562306 1.09846)
(0 0.537694 1.09846)
(0 0.55 1.1)
)


// edges:

164
(
(0 1)
(1 2)
(2 3)
(4 0)
(3 5)
(6 4)
(5 7)
(8 6)
(7 9)
(10 8)
(9 11)
(12 10)
(11 13)
(14 12)
(13 15)
(16 14)
(15 17)
(18 16)
(17 19)
(20 18)
(19 21)
(22 20)
(21 23)
(24 22)
(23 25)
(26 24)
(25 27)
(28 26)
(27 29)
(30 28)
(29 31)
(32 30)
(31 33)
(34 32)
(33 35)
(36 34)
(35 37)
(38 36)
(37 39)
(40 38)
(39 41)
(42 40)
(41 43)
(44 42)
(43 45)
(46 44)
(45 47)
(48 46)
(47 49)
(50 48)
(49 51)
(52 50)
(51 53)
(54 52)
(53 55)
(56 54)
(55 57)
(57 56)
(58 59)
(60 58)
(59 61)
(62 60)
(61 63)
(64 62)
(63 65)
(66 64)
(65 67)
(68 66)
(67 69)
(70 68)
(69 71)
(72 70)
(71 73)
(74 72)
(73 75)
(76 74)
(75 77)
(78 76)
(77 79)
(80 78)
(79 81)
(82 80)
(81 83)
(84 82)
(83 85)
(86 84)
(85 87)
(88 86)
(87 89)
(90 88)
(89 91)
(92 90)
(91 93)
(94 92)
(93 95)
(96 94)
(95 97)
(98 96)
(97 99)
(100 98)
(99 101)
(102 100)
(101 103)
(104 102)
(103 105)
(106 104)
(105 107)
(108 106)
(107 109)
(110 108)
(109 111)
(112 110)
(111 113)
(114 112)
(115 114)
(113 115)
(116 117)
(118 116)
(119 118)
(120 119)
(121 122)
(123 120)
(122 124)
(125 123)
(126 125)
(117 127)
(124 128)
(129 126)
(130 129)
(128 131)
(132 130)
(133 132)
(131 134)
(135 133)
(136 135)
(134 137)
(138 136)
(137 139)
(140 138)
(139 140)
(141 142)
(143 141)
(144 143)
(145 144)
(146 145)
(147 148)
(149 146)
(150 149)
(148 151)
(152 150)
(153 152)
(151 154)
(155 153)
(156 155)
(154 157)
(158 156)
(159 158)
(157 160)
(161 159)
(160 162)
(163 161)
(162 164)
(165 163)
(164 165)
)

// * * * * * * * * * * * * * * * * * * * * * * * * * * * * * * * * * * * * * //


// ************************************************************************* //
